18
cyclohexane
 C                 -1.27062300    0.73359500    0.22925100
 C                  0.00000000    1.46718900   -0.22925100
 C                  1.27062300    0.73359500    0.22925100
 C                  1.27062300   -0.73359500   -0.22925100
 C                  0.00000000   -1.46718900    0.22925100
 C                 -1.27062300   -0.73359500   -0.22925100
 H                  2.16378000    1.24925900   -0.14673000
 H                  0.00000000    1.53559300   -1.32756800
 H                  0.00000000    2.49851800    0.14673000
 H                 -1.32986200    0.76779600    1.32756800
 H                 -2.16378000    1.24925900   -0.14673000
 H                  1.32986200   -0.76779600   -1.32756800
 H                  2.16378000   -1.24925900    0.14673000
 H                  0.00000000   -2.49851800   -0.14673000
 H                  0.00000000   -1.53559300    1.32756800
 H                 -1.32986200   -0.76779600   -1.32756800
 H                 -2.16378000   -1.24925900    0.14673000
 H                  1.32986200    0.76779600    1.32756800
all36_cgenff   q   epsilon (kJ/mol) sigma (AA)
-0.180 0.3264 3.6527 # CG331 
-0.180 0.3264 3.6527 # CG331 
-0.180 0.3264 3.6527 # CG331 
-0.180 0.3264 3.6527 # CG331 
-0.180 0.3264 3.6527 # CG331 
-0.180 0.3264 3.6527 # CG331 
+0.090 0.1004 2.3876 # HGA3
+0.090 0.1004 2.3876 # HGA3
+0.090 0.1004 2.3876 # HGA3
+0.090 0.1004 2.3876 # HGA3
+0.090 0.1004 2.3876 # HGA3
+0.090 0.1004 2.3876 # HGA3
+0.090 0.1004 2.3876 # HGA3
+0.090 0.1004 2.3876 # HGA3
+0.090 0.1004 2.3876 # HGA3
+0.090 0.1004 2.3876 # HGA3
+0.090 0.1004 2.3876 # HGA3
+0.090 0.1004 2.3876 # HGA3

