14
C6H5NH2
 C                 -0.00319200   -1.88178800    0.00000000
 C                 -0.00377500   -1.17184900    1.20258200
 C                 -0.00377500    0.22123600    1.20821400
 C                 -0.00439500    0.93884300    0.00000000
 C                 -0.00377500    0.22123600   -1.20821400
 C                 -0.00377500   -1.17184900   -1.20258200
 H                 -0.00166000   -2.96779000    0.00000000
 H                 -0.00155400   -1.70565300    2.14980400
 H                 -0.00837200    0.76332100    2.15176200
 H                 -0.00837200    0.76332100   -2.15176200
 H                 -0.00155400   -1.70565300   -2.14980400
 N                 -0.06476000    2.33794400    0.00000000
 H                  0.30548500    2.77593900    0.83483100
 H                  0.30548500    2.77593900   -0.83483100
all36_cgenff q epsilon (kJ/mol) sigma (AA)
-0.115 0.2929 3.55005 # CG2R61
-0.115 0.2929 3.55005 # CG2R61
-0.115 0.2929 3.55005 # CG2R61
+0.100 0.2929 3.55005 # CG2R61
-0.115 0.2929 3.55005 # CG2R61
-0.115 0.2929 3.55005 # CG2R61
+0.115 0.1255 2.42003 # HGR61
+0.115 0.1255 2.42003 # HGR61
+0.115 0.1255 2.42003 # HGR61
+0.115 0.1255 2.42003 # HGR61
+0.115 0.1255 2.42003 # HGR61
-0.840 0.8368 3.29632 # NG2S3
+0.370 0.1925 0.40000 # HGP4
+0.370 0.1925 0.40000 # HGP4
