6
CH3CN
 C                  0.00000000    0.00000000   -1.22619100
 H                  0.00000000    1.00880600   -1.58285700
 H                 -0.87365100   -0.50440300   -1.58285700
 H                  0.87365100   -0.50440300   -1.58285700
 C                  0.00000000    0.00000000    0.31380900
 N                  0.00000000    0.00000000    1.46040900
all36_cgenff   q   epsilon (kJ/mol) sigma (AA)
-0.170 0.3264 3.6527 # CG331 
+0.090 0.1004 2.3876 # HGA3
+0.090 0.1004 2.3876 # HGA3
+0.090 0.1004 2.3876 # HGA3
+0.360 0.7528 3.3320 # CG1N1
-0.460 0.7528 3.1894 # NG1T1
