 7
CH3NH2
 N                  0.00000000    0.00000000    0.11934900
 H                 -0.08418923    0.88236691   -0.38418314
 H                 -0.80624676   -0.55702878   -0.16152354
 C                  1.17211242   -0.67672013   -0.45432543
 H                  2.06405375   -0.18646043   -0.12419503
 H                  1.18680391   -1.69755394   -0.13404040
 H                  1.11864948   -0.63872441   -1.52231327
top_all36_prot   q   epsilon (kJ/mol) sigma (AA)
-0.99 0.2510 3.5458 # NG321
+0.39 0.0418 1.5591 # HGPAM2
+0.39 0.0418 1.5591 # HGPAM2
-0.04 0.3347 3.5458 # CG3AM2
+0.09 0.1674 2.2451 # HGAAM2
+0.09 0.1674 2.2451 # HGAAM2
+0.09 0.1674 2.2451 # HGAAM2

