6
CH3OH
O                  0.04687300   -0.75769200    0.00000000
H                 -0.87618500   -1.05160900    0.00000000
C                  0.04687300    0.66094600    0.00000000
H                  1.09415100    0.97510200    0.00000000
H                 -0.43709600    1.08618600    0.89315300
H                 -0.43709600    1.08618600   -0.89315300
all36_cgenff   q   epsilon (kJ/mol) sigma (AA)
-0.650 0.8037 3.1449 # OG311
+0.420 0.1674 0.4000 # HGP1
-0.040 0.3264 3.6527 # CG331
+0.090 0.1004 2.3876 # HGA3
+0.090 0.1004 2.3876 # HGA3
+0.090 0.1004 2.3876 # HGA3
