 28
cispinonate
 C                  0.54686300   -1.16640300    0.21660700
 C                 -0.60809000   -1.07229700   -0.85412600
 C                  0.18774700    0.01378300   -1.62543300
 C                  1.42312200   -0.22460900   -0.72244600
 C                  1.14116700   -2.56826200    0.35307300
 C                  0.23287000   -0.61058700    1.60410200
 C                  2.14793000    0.92359600   -0.05252500
 C                 -2.06167200   -0.80176200   -0.45631500
 C                 -2.50606100    0.57777900    0.15505300
 C                  1.49386800    2.28226700   -0.02513000
 O                  3.24080200    0.73425400    0.46010100
 O                 -1.65503300    1.50871500    0.20163200
 O                 -3.69695300    0.60627800    0.51940800 
 H                 -0.60038100   -2.00997400   -1.42366500
 H                 -0.26596100    0.99041900   -1.48385100
 H                  0.34935200   -0.17414600   -2.69059000
 H                  2.19531100   -0.82565800   -1.20807100
 H                  1.38523100   -2.99595200   -0.62361500
 H                  2.05674400   -2.54951200    0.95228300
 H                  0.42835800   -3.23907400    0.84475100
 H                 -0.46120100   -1.27869900    2.12286200
 H                  1.14570500   -0.54784000    2.20496900
 H                 -0.23776000    0.36936000    1.55053400
 H                 -2.68571200   -0.93311400   -1.34898100
 H                 -2.40340900   -1.57773800    0.23737800
 H                  2.05196200    2.94155900    0.63893300
 H                  1.50634500    2.70066000   -1.03821100
 H                  0.43841900    2.21470500    0.25899300
all36_cgenff   q   epsilon (kJ/mol) sigma (AA)
 0.000 0.3264 3.6527 # CG331
-0.090 0.3264 3.6527 # CG331
-0.180 0.3264 3.6527 # CG331
-0.090 0.3264 3.6527 # CG331
-0.270 0.3264 3.6527 # CG331
-0.270 0.3264 3.6527 # CG331
+0.40 0.2510 3.2072 # CG2O4
-0.180 0.3264 3.6527 # CG331
+0.160 0.4100 3.0290  # CG2O2
-0.270 0.3264 3.6527 # CG331
-0.40 0.5021 3.0291 # OG2D1
-0.580 0.5021 3.0291  # OG2D1
-0.580 0.5021 3.0291  # OG2D1
+0.090 0.1004 2.3876 # HGA3 
+0.090 0.1004 2.3876 # HGA3 
+0.090 0.1004 2.3876 # HGA3 
+0.090 0.1004 2.3876 # HGA3
+0.090 0.1004 2.3876 # HGA3
+0.090 0.1004 2.3876 # HGA3 
+0.090 0.1004 2.3876 # HGA3 
+0.090 0.1004 2.3876 # HGA3
+0.090 0.1004 2.3876 # HGA3
+0.090 0.1004 2.3876 # HGA3 
+0.090 0.1004 2.3876 # HGA3
+0.090 0.1004 2.3876 # HGA3
+0.090 0.1004 2.3876 # HGA3 
+0.090 0.1004 2.3876 # HGA3 
+0.090 0.1004 2.3876 # HGA3 


