36
Coronene
 C                  0.00000000    2.85411400    0.00000000
 C                  0.00000000    1.42998500    0.00000000
 C                  1.23840400    0.71499300    0.00000000
 C                  2.47173600    1.42705700    0.00000000
 C                 -2.47173600   -1.42705700    0.00000000
 C                 -2.47173600    1.42705700    0.00000000
 C                 -1.23840400    0.71499300    0.00000000
 C                  1.23840400   -0.71499300    0.00000000
 C                  0.00000000   -1.42998500    0.00000000
 C                 -1.23840400   -0.71499300    0.00000000
 C                  0.00000000   -2.85411400    0.00000000
 C                  2.47173600   -1.42705700    0.00000000
 H                  4.63700400    1.23627600    0.00000000
 H                  4.63700400   -1.23627600    0.00000000
 H                  1.24785600    4.63390100    0.00000000
 H                  3.38914800    3.39762600    0.00000000
 H                  1.24785600   -4.63390100    0.00000000
 H                  3.38914800   -3.39762600    0.00000000
 H                 -1.24785600    4.63390100    0.00000000
 H                 -3.38914800    3.39762600    0.00000000
 H                 -4.63700400    1.23627600    0.00000000
 H                 -4.63700400   -1.23627600    0.00000000
 H                 -1.24785600   -4.63390100    0.00000000
 H                 -3.38914800   -3.39762600    0.00000000
 C                  1.25031900    3.54047500    0.00000000
 C                  2.44098200    2.85304500    0.00000000
 C                  3.69130100    0.68743000    0.00000000
 C                  3.69130100   -0.68743000    0.00000000
 C                  2.44098200   -2.85304500    0.00000000
 C                  1.25031900   -3.54047500    0.00000000
 C                 -1.25031900   -3.54047500    0.00000000
 C                 -2.44098200   -2.85304500    0.00000000
 C                 -3.69130100   -0.68743000    0.00000000
 C                 -3.69130100    0.68743000    0.00000000
 C                 -2.44098200    2.85304500    0.00000000
 C                 -1.25031900    3.54047500    0.00000000
all36_cgenff q epsilon (kJ/mol) sigma (AA)
0.00 0.2929 3.55005 # CG2R61
0.00 0.2929 3.55005 # CG2R61
0.00 0.2929 3.55005 # CG2R61
0.00 0.2929 3.55005 # CG2R61
0.00 0.2929 3.55005 # CG2R61
0.00 0.2929 3.55005 # CG2R61
0.00 0.2929 3.55005 # CG2R61
0.00 0.2929 3.55005 # CG2R61
0.00 0.2929 3.55005 # CG2R61
0.00 0.2929 3.55005 # CG2R61
0.00 0.2929 3.55005 # CG2R61
0.00 0.2929 3.55005 # CG2R61
+0.115 0.1255 2.42003 # HGR61
+0.115 0.1255 2.42003 # HGR61
+0.115 0.1255 2.42003 # HGR61
+0.115 0.1255 2.42003 # HGR61
+0.115 0.1255 2.42003 # HGR61
+0.115 0.1255 2.42003 # HGR61
+0.115 0.1255 2.42003 # HGR61
+0.115 0.1255 2.42003 # HGR61
+0.115 0.1255 2.42003 # HGR61
+0.115 0.1255 2.42003 # HGR61
+0.115 0.1255 2.42003 # HGR61
+0.115 0.1255 2.42003 # HGR61
-0.115 0.2929 3.55005 # CG2R61
-0.115 0.2929 3.55005 # CG2R61
-0.115 0.2929 3.55005 # CG2R61
-0.115 0.2929 3.55005 # CG2R61
-0.115 0.2929 3.55005 # CG2R61
-0.115 0.2929 3.55005 # CG2R61
-0.115 0.2929 3.55005 # CG2R61
-0.115 0.2929 3.55005 # CG2R61
-0.115 0.2929 3.55005 # CG2R61
-0.115 0.2929 3.55005 # CG2R61
-0.115 0.2929 3.55005 # CG2R61
-0.115 0.2929 3.55005 # CG2R61


