 18
deoxythymidine
 N                  1.17421700    0.63562200    0.00303400
 C                 -0.04246300    1.28959400    0.00128200
 H                  0.02817800    2.37282400    0.00150400
 C                 -1.24199400    0.66188000    0.00012800
 C                 -2.56008000    1.38104900   -0.00091200
 H                 -2.42092000    2.46675800   -0.00076500
 H                 -3.15477800    1.10572000   -0.87948200
 H                 -3.15607900    1.10575600    0.87665700
 C                 -1.25962300   -0.80134500    0.00001400
 O                 -2.26309600   -1.49959800   -0.00113800
 N                  0.01950800   -1.38552700    0.00172600
 H                  0.04999100   -2.39894500    0.00044600
 C                  1.25367000   -0.75656600    0.00076700
 O                  2.31711600   -1.35524100   -0.00155000
 C                  2.44518100    1.35985700   -0.00171000
 H                  3.04266400    1.08013600    0.86955500
 H                  3.01771600    1.11830300   -0.90121500
 H                  2.23685800    2.43067600    0.02406300
 top_all36_cgenff  q   epsilon (kJ/mol) sigma (AA)
-0.34 0.8368 3.2963 # NG2R61
+0.17 0.3766 3.3854 # CG2R62
+0.17 0.1925 1.9600 # HGR62
-0.15 0.3766 3.3854 # CG2R62   
-0.11 0.3264 3.6527 # CG331 
+0.07 0.1004 2.3876 # HGA3
+0.07 0.1004 2.3876 # HGA3
+0.07 0.1004 2.3876 # HGA3
+0.50 0.4184 3.3854 # CG2R63
-0.45 0.5021 3.0291 # OG2D4
-0.46 0.8368 3.2963 # NG2R61
+0.36 0.1924 0.4000 # HGP1
+0.51 0.4184 3.3854 # CG2R63
-0.41 0.5021 3.0291 # OG2D4    
-0.27 0.3264 3.6527 # CG331 
+0.09 0.1004 2.3876 # HGA3
+0.09 0.1004 2.3876 # HGA3
+0.09 0.1004 2.3876 # HGA3
