 12
glyoxal tetrol
C     0.707851000000     -0.338184000000      0.349569000000
H     0.738515000000     -1.092063000000      1.143314000000
C    -0.665462000000     -0.332510000000     -0.338154000000
H    -0.672624000000     -1.073513000000     -1.146440000000
O     0.994219000000      0.906475000000      0.965111000000
H     0.556219000000      1.605543000000      0.424898000000
O     1.646837000000     -0.660946000000     -0.698970000000
H     2.548963000000     -0.432979000000     -0.396226000000
O    -0.857908000000      0.992104000000     -0.841104000000
H    -1.815579000000      1.172808000000     -0.921048000000
O    -1.743360000000     -0.566990000000      0.591440000000
H    -1.928139000000     -1.520770000000      0.695194000000
all36_cgenff   q   epsilon (kJ/mol) sigma (AA)
+0.37 0.1338 3.5635 # CG311
+0.09 0.1882 2.3876 # HGA1
+0.37 0.1338 3.5635 # CG311
+0.09 0.1882 2.3876 # HGA1
-0.65 0.8037 3.1448 # OG311
+0.42 0.1924 0.4000 # HGP1
-0.65 0.8037 3.1448 # OG311
+0.42 0.1924 0.4000 # HGP1
-0.65 0.8037 3.1448 # OG311
+0.42 0.1924 0.4000 # HGP1
-0.65 0.8037 3.1448 # OG311
+0.42 0.1924 0.4000 # HGP1








