 10
guanidinium(+)
 C                  0.00000000    0.00000000    0.00000000
 N                  0.00000000    1.32851100    0.00000000
 H                  0.84344100    1.85336400    0.17097300
 H                 -0.84344100    1.85336400   -0.17097300
 N                 -1.15052400   -0.66425600    0.00000000
 H                 -2.02678100   -0.19624100    0.17097300
 H                 -1.18334000   -1.65712400   -0.17097300
 N                  1.15052400   -0.66425600    0.00000000
 H                  2.02678100   -0.19624100   -0.17097300
 H                  1.18334000   -1.65712400    0.17097300
all32_cgenff q  epsilon (kJ/mol) sigma (AA) (CG2N1, NG2P1, HGP2)
 +0.64  0.46024  3.5636 # CG2N1
 -0.80  0.83680  3.2963 # NG2P1
 +0.46  0.19246  1.7961 # HGP2
 +0.46  0.19246  1.7961 # HGP2
 -0.80  0.83680  3.2963 # NG2P1
 +0.46  0.19246  1.7961 # HGP2
 +0.46  0.19246  1.7961 # HGP2
 -0.80  0.83680  3.2963 # NG2P1
 +0.46  0.19246  1.7961 # HGP2
 +0.46  0.19246  1.7961 # HGP2



