5
HNO3
 N                  0.00000000    0.00000000    0.00000000
 O                  1.09486800   -0.63212200    0.00000000
 O                 -1.09486800   -0.63212200    0.00000000
 O                  0.00000000    1.23760000    0.00000000
 H                  0.89739877    1.55805459   -0.11655175
OPLS q epsilon sigma
 +0.884  0.7113  3.1500 # OPLS728
 -0.458  0.8786  2.8600 # OPLS729    
 -0.458  0.8786  2.8600 # OPLS729    
 -0.398  0.8786  2.8600 # OPLS729    
 +0.430  0.1925  0.4000 # HGP1
