 16
p-C6H4N2H4
 C                  0.00050600    1.21523900    1.11286700
 C                  0.00000000    1.21967800   -0.29240200
 C                  0.00000000    0.00000000   -0.98268500
 C                  0.00000000   -1.21967800   -0.29240200
 C                 -0.00050600   -1.21523900    1.11286700
 C                  0.00000000    0.00000000    1.79331400
 H                  0.00846900    2.15562900    1.65833400
 H                  0.00000000    0.00000000   -2.07173100
 H                 -0.00846900   -2.15562900    1.65833400
 H                  0.00000000    0.00000000    2.88064800
 N                 -0.06211500   -2.42897400   -0.99911900
 H                  0.32896700   -2.38827800   -1.93302300
 H                  0.30577900   -3.22428400   -0.49061700
 N                  0.06211500    2.42897400   -0.99911900
 H                 -0.32896700    2.38827800   -1.93302300
 H                 -0.30577900    3.22428400   -0.49061700
all36_cgenff q epsilon (kJ/mol) sigma (AA)
-0.115 0.2929 3.55005 # CG2R61
+0.100 0.2929 3.55005 # CG2R61
-0.115 0.2929 3.55005 # CG2R61
+0.100 0.2929 3.55005 # CG2R61
-0.115 0.2929 3.55005 # CG2R61
-0.115 0.2929 3.55005 # CG2R61
+0.115 0.1255 2.42003 # HGR61
+0.115 0.1255 2.42003 # HGR61
+0.115 0.1255 2.42003 # HGR61
+0.115 0.1255 2.42003 # HGR61
-0.840 0.8368 3.29632 # NG2S3
+0.370 0.1925 0.40000 # HGP4
+0.370 0.1925 0.40000 # HGP4
-0.840 0.8368 3.29632 # NG2S3
+0.370 0.1925 0.40000 # HGP4
+0.370 0.1925 0.40000 # HGP4
