5
NH4(+)
 N                  0.00000000    0.00000000    0.00000000
 H                  0.59434900    0.59434900    0.59434900
 H                 -0.59434900   -0.59434900    0.59434900
 H                 -0.59434900    0.59434900   -0.59434900
 H                  0.59434900   -0.59434900   -0.59434900
top_all36_prot   q   epsilon (kJ/mol) sigma (AA)
-0.32 0.8368 3.2963 # NH3
+0.33 0.1925 0.4000 # HC
+0.33 0.1925 0.4000 # HC
+0.33 0.1925 0.4000 # HC
+0.33 0.1925 0.4000 # HC
