 50
Pb surface 100 
 Pb                -1.75026606  -14.00212848    0.00000000
 Pb                 1.75026606  -14.00212848   -0.00000000
 Pb                 1.75026606  -10.50159636    0.00000000
 Pb                 5.25079818   -7.00106424    0.00000000
 Pb                 8.75133030   -3.50053212    0.00000000
 Pb                12.25186242   -0.00000000   -0.00000000
 Pb                 5.25079818  -10.50159636    0.00000000
 Pb                 8.75133030   -7.00106424    0.00000000
 Pb                12.25186242   -3.50053212    0.00000000
 Pb                15.75239454   -0.00000000   -0.00000000
 Pb                -5.25079818  -10.50159636    0.00000000
 Pb                -8.75133030   -7.00106424    0.00000000
 Pb               -12.25186242   -3.50053212    0.00000000
 Pb               -15.75239454   -0.00000000   -0.00000000
 Pb                -1.75026606  -10.50159636    0.00000000
 Pb                -5.25079818   -7.00106424    0.00000000
 Pb                -8.75133030   -3.50053212    0.00000000
 Pb               -12.25186242   -0.00000000   -0.00000000
 Pb                -1.75026606   -7.00106424    0.00000000
 Pb                -5.25079818   -3.50053212    0.00000000
 Pb                -8.75133030    0.00000000    0.00000000
 Pb               -12.25186242    3.50053212    0.00000000
 Pb                 1.75026606   -3.50053212    0.00000000
 Pb                -1.75026606    0.00000000    0.00000000
 Pb                -5.25079818    3.50053212   -0.00000000
 Pb                -8.75133030    7.00106424    0.00000000
 Pb                 5.25079818   -0.00000000   -0.00000000
 Pb                 1.75026606    3.50053212   -0.00000000
 Pb                -1.75026606    7.00106424   -0.00000000
 Pb                -5.25079818   10.50159636    0.00000000
 Pb                 8.75133030    3.50053212   -0.00000000
 Pb                 5.25079818    7.00106424   -0.00000000
 Pb                 1.75026606   10.50159636   -0.00000000
 Pb                -1.75026606   14.00212848   -0.00000000
 Pb                 1.75026606   -7.00106424   -0.00000000
 Pb                -1.75026606   -3.50053212    0.00000000
 Pb                -5.25079818   -0.00000000   -0.00000000
 Pb                -8.75133030    3.50053212    0.00000000
 Pb                 5.25079818   -3.50053212   -0.00000000
 Pb                 1.75026606    0.00000000    0.00000000
 Pb                -1.75026606    3.50053212    0.00000000
 Pb                -5.25079818    7.00106424    0.00000000
 Pb                 8.75133030    0.00000000    0.00000000
 Pb                 5.25079818    3.50053212    0.00000000
 Pb                 1.75026606    7.00106424    0.00000000
 Pb                -1.75026606   10.50159636    0.00000000
 Pb                12.25186242    3.50053212   -0.00000000
 Pb                 8.75133030    7.00106424   -0.00000000
 Pb                 5.25079818   10.50159636   -0.00000000
 Pb                 1.75026606   14.00212848    0.00000000
JPCC,2008,112,17281  q epsilon (kJ/mol) sigma (AA)
0 12.2591 6.3521 # Pb
0 12.2591 6.3521 # Pb
0 12.2591 6.3521 # Pb
0 12.2591 6.3521 # Pb
0 12.2591 6.3521 # Pb
0 12.2591 6.3521 # Pb
0 12.2591 6.3521 # Pb
0 12.2591 6.3521 # Pb
0 12.2591 6.3521 # Pb
0 12.2591 6.3521 # Pb
0 12.2591 6.3521 # Pb
0 12.2591 6.3521 # Pb
0 12.2591 6.3521 # Pb
0 12.2591 6.3521 # Pb
0 12.2591 6.3521 # Pb
0 12.2591 6.3521 # Pb
0 12.2591 6.3521 # Pb
0 12.2591 6.3521 # Pb
0 12.2591 6.3521 # Pb
0 12.2591 6.3521 # Pb
0 12.2591 6.3521 # Pb
0 12.2591 6.3521 # Pb
0 12.2591 6.3521 # Pb
0 12.2591 6.3521 # Pb
0 12.2591 6.3521 # Pb
0 12.2591 6.3521 # Pb
0 12.2591 6.3521 # Pb
0 12.2591 6.3521 # Pb
0 12.2591 6.3521 # Pb
0 12.2591 6.3521 # Pb
0 12.2591 6.3521 # Pb
0 12.2591 6.3521 # Pb
0 12.2591 6.3521 # Pb
0 12.2591 6.3521 # Pb
0 12.2591 6.3521 # Pb
0 12.2591 6.3521 # Pb
0 12.2591 6.3521 # Pb
0 12.2591 6.3521 # Pb
0 12.2591 6.3521 # Pb
0 12.2591 6.3521 # Pb
0 12.2591 6.3521 # Pb
0 12.2591 6.3521 # Pb
0 12.2591 6.3521 # Pb
0 12.2591 6.3521 # Pb
0 12.2591 6.3521 # Pb
0 12.2591 6.3521 # Pb
0 12.2591 6.3521 # Pb
0 12.2591 6.3521 # Pb
0 12.2591 6.3521 # Pb
0 12.2591 6.3521 # Pb



