5
SO4(2-)
 S                  0.00000000    0.00000000   -0.00000000
 O                  0.00000000    0.00000000    1.49000000
 O                 -0.00000000   -1.40478547   -0.49666667
 O                 -1.21657991    0.70239274   -0.49666667
 O                  1.21657991    0.70239274   -0.49666667
(JPC,98,6225) q   epsilon sigma (kJ/mol)
 +2.4  1.0455  3.55
 -1.1  1.0455  3.15
 -1.1  1.0455  3.15
 -1.1  1.0455  3.15
 -1.1  1.0455  3.15
