4
H2O
O                  0.00000000    0.00000000    0.21451132
qLP                0.00000000    0.00000000    0.06451132
H                 -0.00000000    0.75695033   -0.37137096
H                  0.00000000   -0.75695033   -0.37137096
TIP4P q  epsilon (kJ/mol) sigma (AA)
 0.000 0.64852 3.1536 # OT
-1.040 0.00000 0.0000 # LP
+0.520 0.00000 0.0000 # HT
+0.520 0.00000 0.0000 # HT
