14
TMAO
 N                  0.00000000    0.00000000    0.08370300
 O                  0.00000000    0.00000000    1.45121700
 C                  0.00000000    1.41323700   -0.42050700
 H                  0.00000000    1.44867900   -1.51215500
 H                 -0.88564100    1.89383300   -0.01501200
 H                  0.88564100    1.89383300   -0.01501200
 C                  1.22389900   -0.70661900   -0.42050700
 H                  2.08292800   -0.17992900   -0.01501200
 H                  1.19728700   -1.71390400   -0.01501200
 H                  1.25459300   -0.72433900   -1.51215500
 C                 -1.22389900   -0.70661900   -0.42050700
 H                 -1.19728700   -1.71390400   -0.01501200
 H                 -2.08292800   -0.17992900   -0.01501200
 H                 -1.25459300   -0.72433900   -1.51215500
all36_cgenff   q   epsilon (kJ/mol) sigma (AA)
-0.830 0.8368 3.2963 # NG3P0
-0.370 0.5021 3.1181 # OG312
-0.350 0.3264 3.6527 # CG334 
+0.250 0.1925 1.2472 # HGP5
+0.250 0.1925 1.2472 # HGP5
+0.250 0.1925 1.2472 # HGP5
-0.350 0.3264 3.6527 # CG334
+0.250 0.1925 1.2472 # HGP5
+0.250 0.1925 1.2472 # HGP5
+0.250 0.1925 1.2472 # HGP5
-0.350 0.3264 3.6527 # CG334
+0.250 0.1925 1.2472 # HGP5
+0.250 0.1925 1.2472 # HGP5
+0.250 0.1925 1.2472 # HGP5


