 8
urea
 C                  0.00836900    0.14112800    0.00000000
 O                  0.03945200    1.36250800    0.00000000
 N                  0.03945200   -0.60611600    1.16718600
 H                 -0.16575700   -0.07030600    1.99832200
 H                 -0.29331700   -1.56029600    1.17367700
 N                  0.03945200   -0.60611600   -1.16718600
 H                 -0.29331700   -1.56029600   -1.17367700
 H                 -0.16575700   -0.07030600   -1.99832200
all36_cgenff   q   epsilon (kJ/mol) sigma (AA)
+0.60 0.2929 3.5636 # CG2O6
-0.58 0.5021 3.0291 # OG2D1
-0.69 0.8368 3.2963 # NG2S2
+0.34 0.1925 0.4000 # HGP1
+0.34 0.1925 0.4000 # HGP1
-0.69 0.8368 3.2963 # NG2S2
+0.34 0.1925 0.4000 # HGP1
+0.34 0.1925 0.4000 # HGP1

