 4
XYZ/aqp.log
O	0.000033 -0.000080 -0.078035
H	0.891244 -0.318004 0.208187
H	-0.721412 -0.612393 0.208136
H	-0.170099 0.931040 0.207956
all32_cgenff q  epsilon (kJ/mol) sigma (AA)
-0.803869 1.0455   3.15   # O
0.601302  0.19246  0.4    # HGP2
0.601293  0.19246  0.4    # HGP2
0.601273  0.19246  0.4    # HGP2
 
